Version 4
SHEET 1 880 680
WIRE -272 -224 -272 -272
WIRE 240 -48 160 -48
WIRE 512 -48 320 -48
WIRE -272 80 -272 -160
WIRE -272 80 -400 80
WIRE 16 112 -96 112
WIRE 144 112 96 112
WIRE 144 128 144 112
WIRE 160 128 160 -48
WIRE 160 128 144 128
WIRE 176 128 160 128
WIRE 512 144 512 -48
WIRE 512 144 240 144
WIRE 176 160 160 160
WIRE -96 224 -96 192
WIRE 160 224 160 160
WIRE -272 336 -272 80
WIRE -272 464 -272 400
FLAG -400 80 0
FLAG -96 224 0
FLAG 160 224 0
FLAG -272 -272 V+
FLAG 208 112 V+
FLAG -272 464 V-
FLAG 208 176 V-
SYMBOL OpAmps\\OP07 208 80 R0
SYMATTR InstName U1
SYMBOL voltage -96 96 R0
WINDOW 123 0 0 Left 0
WINDOW 39 0 0 Left 0
SYMATTR InstName V1
SYMATTR Value SINE(0 -9 1000)
SYMBOL res 112 96 R90
WINDOW 0 0 56 VBottom 2
WINDOW 3 32 56 VTop 2
SYMATTR InstName R1
SYMATTR Value 1,5K
SYMBOL res 336 -64 R90
WINDOW 0 0 56 VBottom 2
WINDOW 3 32 56 VTop 2
SYMATTR InstName R2
SYMATTR Value 2,2K
SYMBOL Misc\\cell -272 -224 R0
WINDOW 123 0 0 Left 0
WINDOW 39 0 0 Left 0
SYMATTR InstName V2
SYMATTR Value 12
SYMBOL Misc\\cell -272 336 R0
WINDOW 123 0 0 Left 0
WINDOW 39 0 0 Left 0
SYMATTR InstName V3
SYMATTR Value 12
TEXT -704 272 Left 2 !.tran 5ms
